ieee_feeders/electricdss-code-r4166-trunk-Distrib-IEEETestCases-123Bus/electricdss-code-r4166-trunk-Distrib-IEEETestCases-123Bus/ieee123_VLN_Node.txt

LINE-GROUND and LINE-LINE VOLTAGES BY BUS & NODE

Bus  Node    VLN (kV)   Angle      pu     Base kV    Node-Node   VLL (kV)  Angle      pu

150 ........ 1       2.4018 /_    0.0   0.99999     4.160        1-2       4.16 /_   30.0   0.99999
   -         2       2.4018 /_ -120.0   0.99999     4.160        2-3       4.16 /_  -90.0   0.99999
   -         3       2.4018 /_  120.0   0.99999     4.160        3-1       4.16 /_  150.0   0.99999
150R ....... 1       2.5068 /_    0.0    1.0437     4.160        1-2     4.3419 /_   30.0    1.0437
   -         2       2.5068 /_ -120.0    1.0437     4.160        2-3      4.342 /_  -90.0    1.0437
   -         3       2.5068 /_  120.0    1.0437     4.160        3-1      4.342 /_  150.0    1.0437
149 ........ 1       2.5068 /_    0.0    1.0437     4.160        1-2     4.3419 /_   30.0    1.0437
   -         2       2.5068 /_ -120.0    1.0437     4.160        2-3      4.342 /_  -90.0    1.0437
   -         3       2.5068 /_  120.0    1.0437     4.160        3-1      4.342 /_  150.0    1.0437
1 .......... 1       2.4769 /_   -0.6    1.0313     4.160        1-2     4.3038 /_   29.7    1.0346
   -         2       2.5009 /_ -120.3    1.0413     4.160        2-3     4.3199 /_  -90.4    1.0384
   -         3       2.4855 /_  119.6    1.0349     4.160        3-1     4.3032 /_  149.4    1.0344
2 .......... 2       2.5004 /_ -120.3    1.0411     4.160
3 .......... 3       2.4816 /_  119.6    1.0332     4.160
7 .......... 1       2.4546 /_   -1.1     1.022     4.160        1-2     4.2762 /_   29.5    1.0279
   -         2       2.4967 /_ -120.6    1.0395     4.160        2-3     4.3045 /_  -90.8    1.0347
   -         3       2.4719 /_  119.4    1.0292     4.160        3-1     4.2767 /_  149.0     1.028
4 .......... 3       2.4804 /_  119.6    1.0327     4.160
5 .......... 3       2.4784 /_  119.6    1.0319     4.160
6 .......... 3       2.4768 /_  119.6    1.0312     4.160
8 .......... 1       2.4401 /_   -1.4     1.016     4.160        1-2     4.2581 /_   29.3    1.0236
   -         2       2.4938 /_ -120.7    1.0383     4.160        2-3     4.2942 /_  -91.0    1.0323
   -         3       2.4628 /_  119.2    1.0254     4.160        3-1     4.2592 /_  148.7    1.0238
12 ......... 2       2.4931 /_ -120.7     1.038     4.160
9 .......... 1       2.4366 /_   -1.4    1.0145     4.160
13 ......... 1        2.421 /_   -1.8     1.008     4.160        1-2     4.2328 /_   29.1    1.0175
   -         2       2.4885 /_ -121.0    1.0361     4.160        2-3      4.279 /_  -91.3    1.0286
   -         3       2.4492 /_  118.9    1.0198     4.160        3-1     4.2339 /_  148.3    1.0178
9R ......... 1       2.4214 /_   -1.4    1.0082     4.160
14 ......... 1       2.4173 /_   -1.5    1.0065     4.160
34 ......... 3       2.4469 /_  118.9    1.0188     4.160
18 ......... 1       2.3993 /_   -2.3   0.99898     4.160        1-2     4.2018 /_   28.8    1.0101
   -         2       2.4786 /_ -121.2     1.032     4.160        2-3     4.2511 /_  -91.5    1.0219
   -         3       2.4315 /_  118.8    1.0124     4.160        3-1     4.2069 /_  148.1    1.0113
11 ......... 1       2.4157 /_   -1.5    1.0058     4.160
10 ......... 1       2.4165 /_   -1.5    1.0061     4.160
15 ......... 3       2.4459 /_  118.9    1.0184     4.160
16 ......... 3       2.4436 /_  118.9    1.0174     4.160
17 ......... 3       2.4448 /_  118.9    1.0179     4.160
19 ......... 1       2.3962 /_   -2.3   0.99766     4.160
21 ......... 1        2.398 /_   -2.3   0.99842     4.160        1-2     4.1997 /_   28.8    1.0095
   -         2       2.4787 /_ -121.2     1.032     4.160        2-3     4.2492 /_  -91.5    1.0215
   -         3       2.4286 /_  118.8    1.0112     4.160        3-1      4.204 /_  148.0    1.0106
20 ......... 1       2.3941 /_   -2.3    0.9968     4.160
22 ......... 2       2.4753 /_ -121.2    1.0306     4.160
23 ......... 1        2.397 /_   -2.4   0.99801     4.160        1-2     4.1981 /_   28.8    1.0092
   -         2       2.4796 /_ -121.2    1.0324     4.160        2-3     4.2484 /_  -91.6    1.0212
   -         3        2.426 /_  118.8    1.0101     4.160        3-1     4.2015 /_  148.0      1.01
24 ......... 3       2.4225 /_  118.8    1.0086     4.160
25 ......... 1       2.3954 /_   -2.4   0.99734     4.160        1-2     4.1963 /_   28.8    1.0087
   -         2       2.4807 /_ -121.2    1.0329     4.160        2-3     4.2477 /_  -91.6    1.0211
   -         3       2.4238 /_  118.8    1.0092     4.160        3-1     4.1995 /_  148.0    1.0095
25R ........ 1       2.3954 /_   -2.4   0.99734     4.160
   -         3       2.4087 /_  118.8    1.0029     4.160        3-1     4.1863 /_  148.1    1.0063
26 ......... 1       2.3948 /_   -2.5   0.99709     4.160
   -         3       2.4075 /_  118.8    1.0024     4.160        3-1      4.185 /_  148.1     1.006
28 ......... 1       2.3945 /_   -2.5   0.99697     4.160        1-2     4.1954 /_   28.8    1.0085
   -         2       2.4813 /_ -121.2    1.0331     4.160        2-3     4.2474 /_  -91.6     1.021
   -         3        2.423 /_  118.8    1.0088     4.160        3-1     4.1986 /_  148.0    1.0093
27 ......... 1       2.3939 /_   -2.5   0.99673     4.160
   -         3       2.4074 /_  118.8    1.0024     4.160        3-1     4.1848 /_  148.1     1.006
31 ......... 3       2.4061 /_  118.8    1.0018     4.160
33 ......... 1       2.3908 /_   -2.5   0.99541     4.160
29 ......... 1       2.3941 /_   -2.5   0.99681     4.160        1-2     4.1948 /_   28.8    1.0084
   -         2       2.4816 /_ -121.2    1.0333     4.160        2-3     4.2471 /_  -91.6    1.0209
   -         3       2.4219 /_  118.8    1.0084     4.160        3-1     4.1977 /_  148.0    1.0091
30 ......... 1       2.3947 /_   -2.5   0.99707     4.160        1-2     4.1949 /_   28.8    1.0084
   -         2       2.4815 /_ -121.2    1.0332     4.160        2-3     4.2467 /_  -91.6    1.0209
   -         3       2.4209 /_  118.8    1.0079     4.160        3-1     4.1969 /_  148.0    1.0089
250 ........ 1       2.3947 /_   -2.5   0.99707     4.160        1-2     4.1949 /_   28.8    1.0084
   -         2       2.4815 /_ -121.2    1.0332     4.160        2-3     4.2467 /_  -91.6    1.0209
   -         3       2.4209 /_  118.8    1.0079     4.160        3-1     4.1969 /_  148.0    1.0089
32 ......... 3       2.4051 /_  118.8    1.0014     4.160
35 ......... 1       2.3927 /_   -2.4    0.9962     4.160        1-2     4.1908 /_   28.7    1.0074
   -         2       2.4725 /_ -121.3    1.0294     4.160        2-3     4.2431 /_  -91.5      1.02
   -         3       2.4289 /_  118.8    1.0113     4.160        3-1     4.1994 /_  148.0    1.0095
36 ......... 1       2.3904 /_   -2.4   0.99527     4.160        1-2     4.1885 /_   28.7    1.0069
   -         2       2.4714 /_ -121.3     1.029     4.160
40 ......... 1        2.389 /_   -2.4   0.99468     4.160        1-2     4.1855 /_   28.7    1.0061
   -         2       2.4697 /_ -121.3    1.0283     4.160        2-3     4.2385 /_  -91.6    1.0189
   -         3       2.4264 /_  118.7    1.0103     4.160        3-1     4.1939 /_  147.9    1.0081
37 ......... 1       2.3885 /_   -2.4   0.99448     4.160
38 ......... 2       2.4698 /_ -121.4    1.0283     4.160
39 ......... 2       2.4688 /_ -121.4    1.0279     4.160
41 ......... 3       2.4254 /_  118.7    1.0098     4.160
42 ......... 1       2.3852 /_   -2.4   0.99309     4.160        1-2     4.1803 /_   28.7    1.0049
   -         2        2.467 /_ -121.4    1.0272     4.160        2-3      4.234 /_  -91.6    1.0178
   -         3       2.4243 /_  118.7    1.0094     4.160        3-1     4.1887 /_  147.9    1.0069
43 ......... 2       2.4638 /_ -121.4    1.0258     4.160
44 ......... 1       2.3826 /_   -2.5     0.992     4.160        1-2     4.1765 /_   28.6     1.004
   -         2       2.4653 /_ -121.4    1.0265     4.160        2-3     4.2309 /_  -91.7     1.017
   -         3       2.4223 /_  118.7    1.0085     4.160        3-1     4.1846 /_  147.8    1.0059
45 ......... 1       2.3813 /_   -2.5   0.99147     4.160
47 ......... 1       2.3801 /_   -2.5   0.99096     4.160        1-2     4.1724 /_   28.6     1.003
   -         2       2.4628 /_ -121.4    1.0254     4.160        2-3     4.2269 /_  -91.7    1.0161
   -         3       2.4199 /_  118.6    1.0075     4.160        3-1     4.1798 /_  147.8    1.0048
46 ......... 1       2.3803 /_   -2.5   0.99107     4.160
48 ......... 1       2.3794 /_   -2.5   0.99069     4.160        1-2     4.1712 /_   28.6    1.0027
   -         2       2.4621 /_ -121.5    1.0251     4.160        2-3     4.2259 /_  -91.7    1.0159
   -         3       2.4194 /_  118.6    1.0073     4.160        3-1     4.1788 /_  147.8    1.0045
49 ......... 1       2.3794 /_   -2.5   0.99069     4.160        1-2     4.1707 /_   28.6    1.0026
   -         2       2.4614 /_ -121.5    1.0248     4.160        2-3     4.2255 /_  -91.7    1.0157
   -         3       2.4191 /_  118.6    1.0072     4.160        3-1     4.1783 /_  147.8    1.0044
50 ......... 1       2.3794 /_   -2.5   0.99067     4.160        1-2     4.1703 /_   28.6    1.0025
   -         2       2.4615 /_ -121.4    1.0249     4.160        2-3     4.2252 /_  -91.7    1.0157
   -         3       2.4183 /_  118.6    1.0069     4.160        3-1     4.1775 /_  147.8    1.0042
51 ......... 1        2.379 /_   -2.5    0.9905     4.160        1-2     4.1699 /_   28.6    1.0024
   -         2       2.4617 /_ -121.4    1.0249     4.160        2-3     4.2253 /_  -91.7    1.0157
   -         3       2.4183 /_  118.6    1.0069     4.160        3-1     4.1774 /_  147.8    1.0042
151 ........ 1        2.379 /_   -2.5    0.9905     4.160        1-2     4.1699 /_   28.6    1.0024
   -         2       2.4617 /_ -121.4    1.0249     4.160        2-3     4.2253 /_  -91.7    1.0157
   -         3       2.4183 /_  118.6    1.0069     4.160        3-1     4.1774 /_  147.8    1.0042
52 ......... 1       2.4067 /_   -2.2     1.002     4.160        1-2     4.2149 /_   28.8    1.0132
   -         2       2.4855 /_ -121.2    1.0349     4.160        2-3     4.2698 /_  -91.6    1.0264
   -         3       2.4415 /_  118.7    1.0165     4.160        3-1     4.2174 /_  148.0    1.0138
53 ......... 1       2.4002 /_   -2.4   0.99933     4.160        1-2     4.2065 /_   28.7    1.0112
   -         2       2.4837 /_ -121.3    1.0341     4.160        2-3     4.2651 /_  -91.7    1.0253
   -         3       2.4377 /_  118.5    1.0149     4.160        3-1     4.2093 /_  147.8    1.0119
54 ......... 1       2.3965 /_   -2.5    0.9978     4.160        1-2     4.2015 /_   28.7      1.01
   -         2       2.4823 /_ -121.4    1.0335     4.160        2-3     4.2622 /_  -91.8    1.0246
   -         3       2.4353 /_  118.5     1.014     4.160        3-1     4.2045 /_  147.7    1.0107
55 ......... 1        2.396 /_   -2.5   0.99759     4.160        1-2     4.2011 /_   28.6    1.0099
   -         2       2.4821 /_ -121.4    1.0335     4.160        2-3     4.2619 /_  -91.8    1.0245
   -         3       2.4355 /_  118.5     1.014     4.160        3-1     4.2043 /_  147.7    1.0107
57 ......... 1        2.389 /_   -2.8   0.99469     4.160        1-2     4.1871 /_   28.4    1.0065
   -         2       2.4755 /_ -121.6    1.0307     4.160        2-3     4.2513 /_  -92.0    1.0219
   -         3       2.4291 /_  118.2    1.0114     4.160        3-1     4.1944 /_  147.5    1.0083
56 ......... 1       2.3959 /_   -2.5   0.99756     4.160        1-2      4.201 /_   28.6    1.0098
   -         2       2.4817 /_ -121.4    1.0333     4.160        2-3     4.2616 /_  -91.8    1.0244
   -         3       2.4357 /_  118.5    1.0141     4.160        3-1     4.2043 /_  147.7    1.0106
58 ......... 2        2.474 /_ -121.6    1.0301     4.160
60 ......... 1       2.3734 /_   -3.5    0.9882     4.160        1-2     4.1572 /_   27.9   0.99933
   -         2       2.4634 /_ -122.0    1.0257     4.160        2-3     4.2296 /_  -92.4    1.0167
   -         3       2.4146 /_  117.8    1.0054     4.160        3-1     4.1727 /_  146.9    1.0031
59 ......... 2       2.4732 /_ -121.6    1.0297     4.160
61 ......... 1       2.3734 /_   -3.5    0.9882     4.160        1-2     4.1572 /_   27.9   0.99933
   -         2       2.4634 /_ -122.0    1.0257     4.160        2-3     4.2296 /_  -92.4    1.0167
   -         3       2.4146 /_  117.8    1.0054     4.160        3-1     4.1727 /_  146.9    1.0031
62 ......... 1       2.3716 /_   -3.5   0.98743     4.160        1-2     4.1528 /_   27.9   0.99828
   -         2       2.4607 /_ -122.0    1.0245     4.160        2-3     4.2238 /_  -92.4    1.0153
   -         3       2.4097 /_  117.8    1.0033     4.160        3-1     4.1664 /_  146.9    1.0015
63 ......... 1       2.3701 /_   -3.5   0.98682     4.160        1-2     4.1498 /_   27.9   0.99755
   -         2       2.4586 /_ -121.9    1.0237     4.160        2-3     4.2203 /_  -92.4    1.0145
   -         3       2.4073 /_  117.8    1.0023     4.160        3-1     4.1626 /_  146.9    1.0006
64 ......... 1       2.3693 /_   -3.4   0.98649     4.160        1-2     4.1449 /_   27.9   0.99638
   -         2       2.4541 /_ -121.9    1.0218     4.160        2-3     4.2133 /_  -92.4    1.0128
   -         3       2.4021 /_  117.7    1.0001     4.160        3-1     4.1563 /_  146.9   0.99912
65 ......... 1       2.3677 /_   -3.4   0.98579     4.160        1-2     4.1417 /_   27.9    0.9956
   -         2       2.4533 /_ -121.9    1.0214     4.160        2-3     4.2073 /_  -92.5    1.0114
   -         3       2.3949 /_  117.7   0.99714     4.160        3-1     4.1487 /_  147.0   0.99728
66 ......... 1       2.3682 /_   -3.5   0.98603     4.160        1-2     4.1416 /_   28.0   0.99557
   -         2       2.4539 /_ -121.8    1.0217     4.160        2-3     4.2053 /_  -92.5    1.0109
   -         3       2.3913 /_  117.7   0.99564     4.160        3-1     4.1465 /_  147.0   0.99675
67 ......... 1       2.4876 /_   -3.7    1.0357     4.160        1-2     4.2648 /_   27.0    1.0252
   -         2       2.4766 /_ -122.2    1.0312     4.160        2-3     4.3011 /_  -92.2    1.0339
   -         3        2.485 /_  117.6    1.0346     4.160        3-1     4.3358 /_  147.0    1.0422
68 ......... 1       2.4839 /_   -3.8    1.0342     4.160
72 ......... 1       2.4885 /_   -3.8    1.0361     4.160        1-2     4.2639 /_   26.9     1.025
   -         2       2.4744 /_ -122.3    1.0303     4.160        2-3     4.2992 /_  -92.3    1.0334
   -         3       2.4845 /_  117.5    1.0344     4.160        3-1     4.3357 /_  146.9    1.0422
97 ......... 1       2.4851 /_   -3.8    1.0347     4.160        1-2      4.261 /_   27.0    1.0243
   -         2       2.4754 /_ -122.2    1.0306     4.160        2-3     4.2984 /_  -92.2    1.0333
   -         3       2.4832 /_  117.6    1.0339     4.160        3-1     4.3328 /_  146.9    1.0415
69 ......... 1       2.4797 /_   -3.8    1.0324     4.160
70 ......... 1       2.4767 /_   -3.8    1.0312     4.160
71 ......... 1        2.475 /_   -3.8    1.0305     4.160
73 ......... 3       2.4793 /_  117.5    1.0323     4.160
76 ......... 1       2.4883 /_   -3.9     1.036     4.160        1-2     4.2634 /_   26.8    1.0248
   -         2       2.4732 /_ -122.4    1.0297     4.160        2-3     4.2984 /_  -92.4    1.0333
   -         3        2.486 /_  117.5    1.0351     4.160        3-1     4.3371 /_  146.8    1.0426
74 ......... 3       2.4749 /_  117.5    1.0304     4.160
75 ......... 3       2.4724 /_  117.4    1.0294     4.160
77 ......... 1       2.4911 /_   -3.9    1.0372     4.160        1-2     4.2685 /_   26.7    1.0261
   -         2       2.4759 /_ -122.4    1.0309     4.160        2-3     4.3025 /_  -92.4    1.0343
   -         3       2.4881 /_  117.4     1.036     4.160        3-1     4.3411 /_  146.7    1.0435
86 ......... 1       2.4862 /_   -3.9    1.0351     4.160        1-2     4.2609 /_   26.7    1.0242
   -         2       2.4689 /_ -122.5     1.028     4.160        2-3     4.2948 /_  -92.4    1.0324
   -         3       2.4894 /_  117.4    1.0365     4.160        3-1     4.3382 /_  146.7    1.0428
78 ......... 1       2.4918 /_   -4.0    1.0375     4.160        1-2     4.2698 /_   26.7    1.0264
   -         2       2.4769 /_ -122.4    1.0313     4.160        2-3     4.3038 /_  -92.5    1.0346
   -         3       2.4885 /_  117.4    1.0361     4.160        3-1     4.3421 /_  146.7    1.0438
79 ......... 1       2.4911 /_   -4.0    1.0372     4.160        1-2     4.2692 /_   26.7    1.0263
   -         2       2.4772 /_ -122.4    1.0314     4.160        2-3     4.3037 /_  -92.5    1.0346
   -         3       2.4884 /_  117.4    1.0361     4.160        3-1     4.3419 /_  146.7    1.0437
80 ......... 1       2.4968 /_   -4.0    1.0396     4.160        1-2     4.2776 /_   26.6    1.0283
   -         2       2.4809 /_ -122.5     1.033     4.160        2-3     4.3101 /_  -92.6    1.0361
   -         3       2.4906 /_  117.3     1.037     4.160        3-1     4.3473 /_  146.7     1.045
81 ......... 1       2.4988 /_   -4.1    1.0404     4.160        1-2     4.2806 /_   26.6     1.029
   -         2       2.4829 /_ -122.5    1.0338     4.160        2-3     4.3129 /_  -92.6    1.0368
   -         3       2.4911 /_  117.2    1.0372     4.160        3-1     4.3492 /_  146.6    1.0455
82 ......... 1       2.5008 /_   -4.1    1.0412     4.160        1-2     4.2849 /_   26.6      1.03
   -         2        2.486 /_ -122.5     1.035     4.160        2-3     4.3172 /_  -92.6    1.0378
   -         3        2.493 /_  117.2     1.038     4.160        3-1     4.3527 /_  146.6    1.0463
84 ......... 3       2.4849 /_  117.2    1.0346     4.160
83 ......... 1       2.5037 /_   -4.1    1.0424     4.160        1-2     4.2897 /_   26.6    1.0312
   -         2       2.4886 /_ -122.6    1.0362     4.160        2-3     4.3215 /_  -92.7    1.0388
   -         3        2.495 /_  117.2    1.0388     4.160        3-1     4.3565 /_  146.6    1.0472
85 ......... 3        2.482 /_  117.2    1.0334     4.160
87 ......... 1        2.485 /_   -3.9    1.0346     4.160        1-2     4.2596 /_   26.6    1.0239
   -         2        2.467 /_ -122.6    1.0272     4.160        2-3     4.2928 /_  -92.4    1.0319
   -         3       2.4908 /_  117.4     1.037     4.160        3-1     4.3383 /_  146.7    1.0429
88 ......... 1       2.4849 /_   -4.0    1.0346     4.160
89 ......... 1       2.4839 /_   -3.9    1.0342     4.160        1-2     4.2593 /_   26.6    1.0239
   -         2       2.4664 /_ -122.7    1.0269     4.160        2-3     4.2923 /_  -92.4    1.0318
   -         3       2.4917 /_  117.4    1.0374     4.160        3-1     4.3379 /_  146.7    1.0428
90 ......... 2       2.4661 /_ -122.7    1.0268     4.160
91 ......... 1       2.4834 /_   -3.9     1.034     4.160        1-2     4.2586 /_   26.6    1.0237
   -         2       2.4656 /_ -122.7    1.0266     4.160        2-3     4.2921 /_  -92.5    1.0318
   -         3       2.4922 /_  117.4    1.0377     4.160        3-1     4.3375 /_  146.7    1.0427
92 ......... 3       2.4921 /_  117.3    1.0376     4.160
93 ......... 1       2.4827 /_   -3.9    1.0337     4.160        1-2     4.2578 /_   26.6    1.0235
   -         2       2.4652 /_ -122.7    1.0264     4.160        2-3     4.2915 /_  -92.5    1.0316
   -         3       2.4925 /_  117.4    1.0378     4.160        3-1     4.3374 /_  146.7    1.0426
94 ......... 1        2.481 /_   -3.9     1.033     4.160
95 ......... 1       2.4826 /_   -3.9    1.0337     4.160        1-2     4.2576 /_   26.6    1.0235
   -         2       2.4643 /_ -122.7     1.026     4.160        2-3     4.2908 /_  -92.5    1.0314
   -         3       2.4929 /_  117.4    1.0379     4.160        3-1     4.3374 /_  146.7    1.0426
96 ......... 2       2.4636 /_ -122.7    1.0258     4.160
98 ......... 1       2.4847 /_   -3.8    1.0345     4.160        1-2       4.26 /_   26.9     1.024
   -         2       2.4748 /_ -122.2    1.0304     4.160        2-3     4.2975 /_  -92.2    1.0331
   -         3       2.4827 /_  117.6    1.0337     4.160        3-1      4.332 /_  146.9    1.0413
99 ......... 1       2.4854 /_   -3.8    1.0348     4.160        1-2     4.2594 /_   26.9    1.0239
   -         2       2.4728 /_ -122.2    1.0296     4.160        2-3     4.2957 /_  -92.2    1.0326
   -         3       2.4819 /_  117.6    1.0334     4.160        3-1     4.3308 /_  146.9    1.0411
100 ........ 1       2.4858 /_   -3.8     1.035     4.160        1-2     4.2593 /_   26.9    1.0239
   -         2       2.4726 /_ -122.2    1.0295     4.160        2-3     4.2954 /_  -92.3    1.0326
   -         3       2.4809 /_  117.6     1.033     4.160        3-1       4.33 /_  146.9    1.0409
450 ........ 1       2.4858 /_   -3.8     1.035     4.160        1-2     4.2593 /_   26.9    1.0239
   -         2       2.4726 /_ -122.2    1.0295     4.160        2-3     4.2954 /_  -92.3    1.0326
   -         3       2.4809 /_  117.6     1.033     4.160        3-1       4.33 /_  146.9    1.0409
197 ........ 1       2.4851 /_   -3.8    1.0347     4.160        1-2      4.261 /_   27.0    1.0243
   -         2       2.4754 /_ -122.2    1.0306     4.160        2-3     4.2984 /_  -92.2    1.0333
   -         3       2.4832 /_  117.6    1.0339     4.160        3-1     4.3328 /_  146.9    1.0415
101 ........ 1       2.4832 /_   -3.8    1.0339     4.160        1-2     4.2582 /_   26.9    1.0236
   -         2       2.4747 /_ -122.2    1.0304     4.160        2-3     4.2966 /_  -92.2    1.0328
   -         3       2.4819 /_  117.6    1.0334     4.160        3-1     4.3307 /_  146.9     1.041
102 ........ 3       2.4785 /_  117.6    1.0319     4.160
105 ........ 1         2.48 /_   -3.9    1.0326     4.160        1-2     4.2552 /_   26.9    1.0229
   -         2       2.4744 /_ -122.2    1.0302     4.160        2-3     4.2953 /_  -92.2    1.0325
   -         3       2.4826 /_  117.6    1.0336     4.160        3-1       4.33 /_  146.9    1.0409
103 ........ 3       2.4745 /_  117.6    1.0303     4.160
104 ........ 3       2.4702 /_  117.5    1.0285     4.160
106 ........ 2       2.4716 /_ -122.3    1.0291     4.160
108 ........ 1       2.4764 /_   -3.9    1.0311     4.160        1-2     4.2523 /_   26.9    1.0222
   -         2       2.4759 /_ -122.3    1.0309     4.160        2-3     4.2952 /_  -92.2    1.0325
   -         3       2.4822 /_  117.7    1.0335     4.160        3-1     4.3289 /_  146.8    1.0406
107 ........ 2       2.4681 /_ -122.3    1.0276     4.160
109 ........ 1       2.4666 /_   -4.0     1.027     4.160
300 ........ 1       2.4764 /_   -3.9    1.0311     4.160        1-2     4.2523 /_   26.9    1.0222
   -         2       2.4759 /_ -122.3    1.0309     4.160        2-3     4.2952 /_  -92.2    1.0325
   -         3       2.4822 /_  117.7    1.0335     4.160        3-1     4.3289 /_  146.8    1.0406
110 ........ 1       2.4618 /_   -4.0     1.025     4.160
111 ........ 1         2.46 /_   -4.1    1.0243     4.160
112 ........ 1       2.4602 /_   -4.1    1.0243     4.160
113 ........ 1       2.4552 /_   -4.1    1.0222     4.160
114 ........ 1       2.4542 /_   -4.1    1.0218     4.160
135 ........ 1       2.3993 /_   -2.3   0.99898     4.160        1-2     4.2018 /_   28.8    1.0101
   -         2       2.4786 /_ -121.2     1.032     4.160        2-3     4.2511 /_  -91.5    1.0219
   -         3       2.4315 /_  118.8    1.0124     4.160        3-1     4.2069 /_  148.1    1.0113
152 ........ 1        2.421 /_   -1.8     1.008     4.160        1-2     4.2328 /_   29.1    1.0175
   -         2       2.4885 /_ -121.0    1.0361     4.160        2-3      4.279 /_  -91.3    1.0286
   -         3       2.4492 /_  118.9    1.0198     4.160        3-1     4.2339 /_  148.3    1.0178
160R ....... 1       2.4921 /_   -3.5    1.0376     4.160        1-2     4.2722 /_   27.2     1.027
   -         2       2.4788 /_ -122.0    1.0321     4.160        2-3     4.3084 /_  -92.0    1.0357
   -         3       2.4901 /_  117.8    1.0368     4.160        3-1     4.3419 /_  147.2    1.0437
160 ........ 1       2.3734 /_   -3.5    0.9882     4.160        1-2     4.1572 /_   27.9   0.99933
   -         2       2.4634 /_ -122.0    1.0257     4.160        2-3     4.2296 /_  -92.4    1.0167
   -         3       2.4146 /_  117.8    1.0054     4.160        3-1     4.1727 /_  146.9    1.0031
61S ........ 1       2.3734 /_   -3.5    0.9882     4.160        1-2     4.1572 /_   27.9   0.99933
   -         2       2.4634 /_ -122.0    1.0257     4.160        2-3     4.2296 /_  -92.4    1.0167
   -         3       2.4146 /_  117.8    1.0054     4.160        3-1     4.1727 /_  146.9    1.0031
300_OPEN ... 1        2.379 /_   -2.5    0.9905     4.160        1-2     4.1699 /_   28.6    1.0024
   -         2       2.4617 /_ -121.4    1.0249     4.160        2-3     4.2253 /_  -91.7    1.0157
   -         3       2.4183 /_  118.6    1.0069     4.160        3-1     4.1774 /_  147.8    1.0042
94_OPEN .... 1       2.3965 /_   -2.5    0.9978     4.160
610 ........ 1      0.27601 /_   -2.7   0.99596     0.480        1-2    0.47968 /_   27.9   0.99933
   -         2      0.27983 /_ -122.0    1.0097     0.480        2-3    0.48803 /_  -92.4    1.0167
   -         3      0.28085 /_  117.0    1.0134     0.480        3-1    0.48147 /_  146.9    1.0031
